&share
 wrf_core = 'ARW',
 max_dom = 3,
 start_date = '2013-11-08_00:00:00','2013-11-08_00:00:00','2013-11-08_00:00:00','2013-11-08_00:00:00','2013-11-08_00:00:00','2013-11-08_00:00:00',
 end_date   = '2013-11-09_12:00:00','2013-11-09_12:00:00','2013-11-09_12:00:00','2013-11-09_12:00:00','2013-11-09_12:00:00','2013-11-09_12:00:00',
 interval_seconds = 10800,
 io_form_geogrid = 2,
/

&geogrid
 parent_id         =   1,   1,  2, 3, 4, 
 parent_grid_ratio =   1,   3,  3, 3, 3,
 i_parent_start    =   1,  28, 76, 10, 20, 
 j_parent_start    =   1,  23, 67, 10, 20,  
 e_we              =  118, 154, 118, 304, 730, 
 e_sn              =  100, 133, 100, 253, 601,
 geog_data_res     = '5m','2m','30s','30s','30s',
 dx = 27000,
 dy = 27000,
 map_proj = 'lambert',
 ref_lat   =  33.610581,
 ref_lon   = -102.050561,
 truelat1  =  33.610581,
 truelat2  =  33.610581,
 stand_lon =  -102.050561,
 geog_data_path = '/usr/gapps/urbanwrf/geog',
 opt_geogrid_tbl_path='/home/cdraxl/data/geog',
/

&ungrib
 out_format = 'WPS',
 prefix = 'FIELD',
/

&metgrid
 fg_name = 'GFS',
 io_form_metgrid = 2,
 constants_name = 'SST:DATE', 
/

